  52
# Step 76, RM=C2H3O2[41] (7 atoms), C6H11N2[262] d=219.225pm (19 atoms), C6H11N2[284] d=238.312pm (19 atoms), C2H3O2[129] d=253.071pm (7 atoms)
  C  -0.08173  -0.02689  -0.03539
  C   0.96817   0.90946   0.48211
  H   1.77157   1.06121  -0.23879
  H   0.55747   1.91810   0.52741
  H   1.25227   0.65801   1.50391
  O  -0.93973  -0.49575   0.77661
  O   0.04867  -0.39596  -1.22489
  C  -2.36923  -1.63417  -2.46619
  C  -3.76563  -0.05871  -1.06839
  C  -4.19553  -2.47908  -1.76539
  C  -3.47823  -3.48208  -2.27699
  C  -1.25203  -3.56648  -3.63959
  C  -5.26613   0.11819  -0.77409
  H  -1.49503  -1.02662  -2.64799
  H  -3.44273   0.80602  -1.64819
  H  -3.06613   0.20863  -0.27639
  H  -5.12763  -2.53808  -1.22299
  H  -3.70123  -4.53818  -2.31399
  H  -0.28333  -3.07156  -3.57069
  H  -1.24943  -4.63442  -3.42139
  H  -1.62983  -3.48007  -4.65829
  H  -5.72133  -0.63498  -0.13089
  H  -5.58743   1.08582  -0.38859
  H  -5.78703  -0.02857  -1.72019
  N  -3.44293  -1.31869  -1.83729
  N  -2.33823  -2.94112  -2.83789
  C  -1.33463  -5.42976  -0.03429
  C  -3.31003  -6.91746   0.32411
  C  -3.13373  -4.49296   0.82301
  C  -2.15353  -3.58986   0.75971
  C   0.19157  -3.52346  -0.16129
  C  -2.42853  -8.13766  -0.08779
  H  -0.58273  -6.13266  -0.36139
  H  -3.74893  -7.18736   1.28461
  H  -4.20103  -6.89636  -0.30339
  H  -4.15333  -4.28476   1.11201
  H  -2.19113  -2.54376   1.02521
  H   0.99357  -4.21886  -0.40889
  H   0.23877  -2.75326  -0.93119
  H   0.39577  -2.93636   0.73411
  H  -1.91753  -7.97916  -1.03749
  H  -1.71893  -8.19826   0.73741
  H  -2.92493  -9.10786  -0.10399
  N  -2.57513  -5.65756   0.31951
  N  -1.03613  -4.17196   0.18761
  C   0.42247   2.02669   5.28731
  C   1.58127   1.73015   4.34961
  H   1.55237   0.66179   4.13541
  H   1.40577   2.29070   3.43141
  H   2.56467   2.03439   4.70791
  O  -0.52193   2.71541   4.82231
  O   0.50977   1.52087   6.41771
