52

CO2 -0.04866 -0.06908 0.00926
CTA 0.19224 0.77012 -1.18644
HC -0.57716 1.54032 -1.24104
HC 0.22924 0.08872 -2.03644
HC 1.16114 1.25952 -1.08794
O2 -1.02666 0.19022 0.72826
O2 0.86764 -0.89848 0.43046
CR 3.74504 -3.56128 -1.56824
C1 5.82494 -4.01632 -0.31244
CW 3.39504 -3.89292 0.55396
CW 2.29354 -3.47888 0.04286
C1A 1.53024 -2.77708 -2.31304
CE 6.52404 -5.42566 -0.21734
HCR 4.29444 -3.41240 -2.48604
H1 5.98674 -3.51678 0.64276
H1 6.25874 -3.54321 -1.19344
HCW 3.58914 -4.05809 1.60346
HCW 1.32434 -3.23820 0.45406
H1 0.89074 -1.96438 -1.96864
H1 0.76884 -3.55039 -2.41484
H1 2.07524 -2.46208 -3.20284
HC 6.34274 -5.79800 0.79096
HC 5.99884 -6.10625 -0.88754
HC 7.57524 -5.28649 -0.46954
NA 4.35394 -3.98803 -0.47794
NA 2.50364 -3.27160 -1.34014
CR -4.11046 -0.88318 0.50496
C1 -3.55406 -0.60238 2.83786
CW -5.14576 -2.33308 1.68816
CW -5.43996 -2.56038 0.41846
C1A -4.81576 -1.46808 -1.82514
CE -4.72726 -0.08598 3.72706
HCR -3.40216 -0.11878 0.22126
H1 -3.00606 -1.41168 3.32026
H1 -2.97906 0.30042 2.63166
HCW -5.50356 -2.79738 2.59536
HCW -6.11236 -3.24465 -0.07774
H1 -4.84176 -2.36308 -2.44674
H1 -5.68926 -0.89568 -2.13754
H1 -3.94346 -0.87498 -2.09964
HC -4.43216 0.38872 4.66276
HC -5.32786 -0.90868 4.11496
HC -5.34096 0.68892 3.26766
NA -4.19896 -1.29178 1.70796
NA -4.70796 -1.65778 -0.33864
CO2 -1.91936 -1.48488 -4.68624
CTA -1.63816 0.02102 -4.48624
HC -0.54946 0.06622 -4.45674
HC -1.90116 0.32312 -3.47254
HC -1.98186 0.64912 -5.30804
O2 -2.70646 -2.04568 -3.94704
O2 -1.22966 -2.16518 -5.48414
